# Output control package file for MODFLOW, generated by Flopy.
HEAD SAVE FORMAT       (20F10.3) LABEL
HEAD SAVE UNIT          51
DRAWDOWN SAVE FORMAT   (20F10.3) LABEL
DRAWDOWN SAVE UNIT      52
COMPACT BUDGET AUX

period 1 step 1 
save head
save budget

period 2 step 1 
save head
save budget

period 3 step 1 
save head
save budget

