# Discretization file for MODFLOW, generated by Flopy.
         1        40        20         3         4         2
  0
CONSTANT       250.00
CONSTANT       250.00
CONSTANT       3.500000E+01                                  # top                           
OPEN/CLOSE     .\input\dis_support\botm.ref  1  (10e12.4) -1 # botm                          
      1.000000             1  1.000000  SS 
   1825.000000             1  1.000000  TR 
      1.000000             1  1.000000  SS 